<?xml version="1.0" encoding="UTF-8"?>

<!-- generated on 2025-08-27 16:54:40 by Eclipse SUMO netconvert Version 1.19.0
<configuration xmlns:xsi="http://www.w3.org/2001/XMLSchema-instance" xsi:noNamespaceSchemaLocation="http://sumo.dlr.de/xsd/netconvertConfiguration.xsd">

    <input>
        <node-files value="single-intersection.nod.xml"/>
        <edge-files value="single-intersection.edg.xml"/>
    </input>

    <output>
        <output-file value="single-intersection.net.xml"/>
    </output>

</configuration>
-->

<net version="1.16" junctionCornerDetail="5" limitTurnSpeed="5.50" xmlns:xsi="http://www.w3.org/2001/XMLSchema-instance" xsi:noNamespaceSchemaLocation="http://sumo.dlr.de/xsd/net_file.xsd">

    <location netOffset="150.00,150.00" convBoundary="0.00,0.00,300.00,300.00" origBoundary="-150.00,-150.00,150.00,150.00" projParameter="!"/>

    <edge id=":e_0" function="internal">
        <lane id=":e_0_0" index="0" speed="3.65" length="4.67" shape="300.00,148.40 301.20,149.20 301.60,150.00 301.20,150.80 300.00,151.60"/>
    </edge>
    <edge id=":n_0" function="internal">
        <lane id=":n_0_0" index="0" speed="3.65" length="4.67" shape="151.60,300.00 150.80,301.20 150.00,301.60 149.20,301.20 148.40,300.00"/>
    </edge>
    <edge id=":s_0" function="internal">
        <lane id=":s_0_0" index="0" speed="3.65" length="4.67" shape="148.40,0.00 149.20,-1.20 150.00,-1.60 150.80,-1.20 151.60,0.00"/>
    </edge>
    <edge id=":t_0" function="internal">
        <lane id=":t_0_0" index="0" speed="6.51" length="9.03" shape="145.20,160.40 144.85,157.95 143.80,156.20 142.05,155.15 139.60,154.80"/>
    </edge>
    <edge id=":t_1" function="internal">
        <lane id=":t_1_0" index="0" speed="13.89" length="20.80" shape="145.20,160.40 145.20,139.60"/>
        <lane id=":t_1_1" index="1" speed="13.89" length="20.80" shape="148.40,160.40 148.40,139.60"/>
    </edge>
    <edge id=":t_3" function="internal">
        <lane id=":t_3_0" index="0" speed="9.26" length="5.01" shape="148.40,160.40 149.11,155.44"/>
    </edge>
    <edge id=":t_4" function="internal">
        <lane id=":t_4_0" index="0" speed="3.65" length="1.44" shape="148.40,160.40 149.20,159.20"/>
    </edge>
    <edge id=":t_20" function="internal">
        <lane id=":t_20_0" index="0" speed="9.26" length="14.34" shape="149.11,155.44 149.15,155.15 151.40,151.40 155.15,149.15 160.40,148.40"/>
    </edge>
    <edge id=":t_21" function="internal">
        <lane id=":t_21_0" index="0" speed="3.65" length="3.23" shape="149.20,159.20 150.00,158.80 150.80,159.20 151.60,160.40"/>
    </edge>
    <edge id=":t_5" function="internal">
        <lane id=":t_5_0" index="0" speed="6.51" length="9.03" shape="160.40,154.80 157.95,155.15 156.20,156.20 155.15,157.95 154.80,160.40"/>
    </edge>
    <edge id=":t_6" function="internal">
        <lane id=":t_6_0" index="0" speed="13.89" length="20.80" shape="160.40,154.80 139.60,154.80"/>
        <lane id=":t_6_1" index="1" speed="13.89" length="20.80" shape="160.40,151.60 139.60,151.60"/>
    </edge>
    <edge id=":t_8" function="internal">
        <lane id=":t_8_0" index="0" speed="9.26" length="19.35" shape="160.40,151.60 155.15,150.85 151.40,148.60 149.15,144.85 148.40,139.60"/>
    </edge>
    <edge id=":t_9" function="internal">
        <lane id=":t_9_0" index="0" speed="3.65" length="4.67" shape="160.40,151.60 159.20,150.80 158.80,150.00 159.20,149.20 160.40,148.40"/>
    </edge>
    <edge id=":t_10" function="internal">
        <lane id=":t_10_0" index="0" speed="6.51" length="9.03" shape="154.80,139.60 155.15,142.05 156.20,143.80 157.95,144.85 160.40,145.20"/>
    </edge>
    <edge id=":t_11" function="internal">
        <lane id=":t_11_0" index="0" speed="13.89" length="20.80" shape="154.80,139.60 154.80,160.40"/>
        <lane id=":t_11_1" index="1" speed="13.89" length="20.80" shape="151.60,139.60 151.60,160.40"/>
    </edge>
    <edge id=":t_13" function="internal">
        <lane id=":t_13_0" index="0" speed="9.26" length="5.01" shape="151.60,139.60 150.89,144.56"/>
    </edge>
    <edge id=":t_14" function="internal">
        <lane id=":t_14_0" index="0" speed="3.65" length="1.44" shape="151.60,139.60 150.80,140.80"/>
    </edge>
    <edge id=":t_22" function="internal">
        <lane id=":t_22_0" index="0" speed="9.26" length="14.34" shape="150.89,144.56 150.85,144.85 148.60,148.60 144.85,150.85 139.60,151.60"/>
    </edge>
    <edge id=":t_23" function="internal">
        <lane id=":t_23_0" index="0" speed="3.65" length="3.23" shape="150.80,140.80 150.00,141.20 149.20,140.80 148.40,139.60"/>
    </edge>
    <edge id=":t_15" function="internal">
        <lane id=":t_15_0" index="0" speed="6.51" length="9.03" shape="139.60,145.20 142.05,144.85 143.80,143.80 144.85,142.05 145.20,139.60"/>
    </edge>
    <edge id=":t_16" function="internal">
        <lane id=":t_16_0" index="0" speed="13.89" length="20.80" shape="139.60,145.20 160.40,145.20"/>
        <lane id=":t_16_1" index="1" speed="13.89" length="20.80" shape="139.60,148.40 160.40,148.40"/>
    </edge>
    <edge id=":t_18" function="internal">
        <lane id=":t_18_0" index="0" speed="9.26" length="19.35" shape="139.60,148.40 144.85,149.15 148.60,151.40 150.85,155.15 151.60,160.40"/>
    </edge>
    <edge id=":t_19" function="internal">
        <lane id=":t_19_0" index="0" speed="3.65" length="4.67" shape="139.60,148.40 140.80,149.20 141.20,150.00 140.80,150.80 139.60,151.60"/>
    </edge>
    <edge id=":w_0" function="internal">
        <lane id=":w_0_0" index="0" speed="3.65" length="4.67" shape="0.00,151.60 -1.20,150.80 -1.60,150.00 -1.20,149.20 0.00,148.40"/>
    </edge>

    <edge id="e_t" from="e" to="t" priority="-1">
        <lane id="e_t_0" index="0" speed="13.89" length="139.60" shape="300.00,154.80 160.40,154.80"/>
        <lane id="e_t_1" index="1" speed="13.89" length="139.60" shape="300.00,151.60 160.40,151.60"/>
    </edge>
    <edge id="n_t" from="n" to="t" priority="-1">
        <lane id="n_t_0" index="0" speed="13.89" length="139.60" shape="145.20,300.00 145.20,160.40"/>
        <lane id="n_t_1" index="1" speed="13.89" length="139.60" shape="148.40,300.00 148.40,160.40"/>
    </edge>
    <edge id="s_t" from="s" to="t" priority="-1">
        <lane id="s_t_0" index="0" speed="13.89" length="139.60" shape="154.80,0.00 154.80,139.60"/>
        <lane id="s_t_1" index="1" speed="13.89" length="139.60" shape="151.60,0.00 151.60,139.60"/>
    </edge>
    <edge id="t_e" from="t" to="e" priority="-1">
        <lane id="t_e_0" index="0" speed="13.89" length="139.60" shape="160.40,145.20 300.00,145.20"/>
        <lane id="t_e_1" index="1" speed="13.89" length="139.60" shape="160.40,148.40 300.00,148.40"/>
    </edge>
    <edge id="t_n" from="t" to="n" priority="-1">
        <lane id="t_n_0" index="0" speed="13.89" length="139.60" shape="154.80,160.40 154.80,300.00"/>
        <lane id="t_n_1" index="1" speed="13.89" length="139.60" shape="151.60,160.40 151.60,300.00"/>
    </edge>
    <edge id="t_s" from="t" to="s" priority="-1">
        <lane id="t_s_0" index="0" speed="13.89" length="139.60" shape="145.20,139.60 145.20,0.00"/>
        <lane id="t_s_1" index="1" speed="13.89" length="139.60" shape="148.40,139.60 148.40,0.00"/>
    </edge>
    <edge id="t_w" from="t" to="w" priority="-1">
        <lane id="t_w_0" index="0" speed="13.89" length="139.60" shape="139.60,154.80 0.00,154.80"/>
        <lane id="t_w_1" index="1" speed="13.89" length="139.60" shape="139.60,151.60 0.00,151.60"/>
    </edge>
    <edge id="w_t" from="w" to="t" priority="-1">
        <lane id="w_t_0" index="0" speed="13.89" length="139.60" shape="0.00,145.20 139.60,145.20"/>
        <lane id="w_t_1" index="1" speed="13.89" length="139.60" shape="0.00,148.40 139.60,148.40"/>
    </edge>

    <junction id="e" type="priority" x="300.00" y="150.00" incLanes="t_e_0 t_e_1" intLanes=":e_0_0" shape="300.00,150.00 300.00,143.60 300.00,150.00">
        <request index="0" response="0" foes="0" cont="0"/>
    </junction>
    <junction id="n" type="priority" x="150.00" y="300.00" incLanes="t_n_0 t_n_1" intLanes=":n_0_0" shape="150.00,300.00 156.40,300.00 150.00,300.00">
        <request index="0" response="0" foes="0" cont="0"/>
    </junction>
    <junction id="s" type="priority" x="150.00" y="0.00" incLanes="t_s_0 t_s_1" intLanes=":s_0_0" shape="150.00,0.00 143.60,0.00 150.00,0.00">
        <request index="0" response="0" foes="0" cont="0"/>
    </junction>
    <junction id="t" type="priority" x="150.00" y="150.00" incLanes="n_t_0 n_t_1 e_t_0 e_t_1 s_t_0 s_t_1 w_t_0 w_t_1" intLanes=":t_0_0 :t_1_0 :t_1_1 :t_20_0 :t_21_0 :t_5_0 :t_6_0 :t_6_1 :t_8_0 :t_9_0 :t_10_0 :t_11_0 :t_11_1 :t_22_0 :t_23_0 :t_15_0 :t_16_0 :t_16_1 :t_18_0 :t_19_0" shape="143.60,160.40 156.40,160.40 156.84,158.18 157.40,157.40 158.18,156.84 159.18,156.51 160.40,156.40 160.40,143.60 158.18,143.16 157.40,142.60 156.84,141.82 156.51,140.82 156.40,139.60 143.60,139.60 143.16,141.82 142.60,142.60 141.82,143.16 140.82,143.49 139.60,143.60 139.60,156.40 141.82,156.84 142.60,157.40 143.16,158.18 143.49,159.18">
        <request index="0"  response="00000000000000000000" foes="00000000000011000000" cont="0"/>
        <request index="1"  response="00000000000000000000" foes="01111110000111000000" cont="0"/>
        <request index="2"  response="00000000000000000000" foes="01111110000111000000" cont="0"/>
        <request index="3"  response="00000001100000000000" foes="01110001101111000000" cont="1"/>
        <request index="4"  response="01000001100000000000" foes="01000001100000000000" cont="1"/>
        <request index="5"  response="00000001100000000000" foes="00000001100000000000" cont="0"/>
        <request index="6"  response="00000011100000001111" foes="11000011100000001111" cont="0"/>
        <request index="7"  response="00000011100000001111" foes="11000011100000001111" cont="0"/>
        <request index="8"  response="00110011100000001110" foes="00110111100000001110" cont="0"/>
        <request index="9"  response="00110000000000001000" foes="00110000000000001000" cont="0"/>
        <request index="10" response="00000000000000000000" foes="00110000000000000000" cont="0"/>
        <request index="11" response="00000000000000000000" foes="01110000000111111000" cont="0"/>
        <request index="12" response="00000000000000000000" foes="01110000000111111000" cont="0"/>
        <request index="13" response="00000000000000000110" foes="11110000000111000110" cont="1"/>
        <request index="14" response="00000000000100000110" foes="00000000000100000110" cont="1"/>
        <request index="15" response="00000000000000000110" foes="00000000000000000110" cont="0"/>
        <request index="16" response="00000011110000001110" foes="00000011111100001110" cont="0"/>
        <request index="17" response="00000011110000001110" foes="00000011111100001110" cont="0"/>
        <request index="18" response="00000011100011001110" foes="00000011100011011110" cont="0"/>
        <request index="19" response="00000010000011000000" foes="00000010000011000000" cont="0"/>
    </junction>
    <junction id="w" type="priority" x="0.00" y="150.00" incLanes="t_w_0 t_w_1" intLanes=":w_0_0" shape="0.00,150.00 0.00,156.40 0.00,150.00">
        <request index="0" response="0" foes="0" cont="0"/>
    </junction>

    <junction id=":t_20_0" type="internal" x="149.11" y="155.44" incLanes=":t_3_0 s_t_0 s_t_1" intLanes=":t_6_0 :t_6_1 :t_8_0 :t_9_0 :t_10_0 :t_11_0 :t_11_1 :t_16_0 :t_16_1 :t_18_0"/>
    <junction id=":t_21_0" type="internal" x="149.20" y="159.20" incLanes=":t_4_0 e_t_0 s_t_0 s_t_1 w_t_1" intLanes=":t_5_0 :t_11_0 :t_11_1 :t_18_0"/>
    <junction id=":t_22_0" type="internal" x="150.89" y="144.56" incLanes=":t_13_0 n_t_0 n_t_1" intLanes=":t_0_0 :t_1_0 :t_1_1 :t_6_0 :t_6_1 :t_8_0 :t_16_0 :t_16_1 :t_18_0 :t_19_0"/>
    <junction id=":t_23_0" type="internal" x="150.80" y="140.80" incLanes=":t_14_0 e_t_1 n_t_0 n_t_1 w_t_0" intLanes=":t_1_0 :t_1_1 :t_8_0 :t_15_0"/>

    <connection from="e_t" to="t_n" fromLane="0" toLane="0" via=":t_5_0" dir="r" state="m"/>
    <connection from="e_t" to="t_w" fromLane="0" toLane="0" via=":t_6_0" dir="s" state="m"/>
    <connection from="e_t" to="t_w" fromLane="1" toLane="1" via=":t_6_1" dir="s" state="m"/>
    <connection from="e_t" to="t_s" fromLane="1" toLane="1" via=":t_8_0" dir="l" state="m"/>
    <connection from="e_t" to="t_e" fromLane="1" toLane="1" via=":t_9_0" dir="t" state="m"/>
    <connection from="n_t" to="t_w" fromLane="0" toLane="0" via=":t_0_0" dir="r" state="M"/>
    <connection from="n_t" to="t_s" fromLane="0" toLane="0" via=":t_1_0" dir="s" state="M"/>
    <connection from="n_t" to="t_s" fromLane="1" toLane="1" via=":t_1_1" dir="s" state="M"/>
    <connection from="n_t" to="t_e" fromLane="1" toLane="1" via=":t_3_0" dir="l" state="m"/>
    <connection from="n_t" to="t_n" fromLane="1" toLane="1" via=":t_4_0" dir="t" state="m"/>
    <connection from="s_t" to="t_e" fromLane="0" toLane="0" via=":t_10_0" dir="r" state="M"/>
    <connection from="s_t" to="t_n" fromLane="0" toLane="0" via=":t_11_0" dir="s" state="M"/>
    <connection from="s_t" to="t_n" fromLane="1" toLane="1" via=":t_11_1" dir="s" state="M"/>
    <connection from="s_t" to="t_w" fromLane="1" toLane="1" via=":t_13_0" dir="l" state="m"/>
    <connection from="s_t" to="t_s" fromLane="1" toLane="1" via=":t_14_0" dir="t" state="m"/>
    <connection from="t_e" to="e_t" fromLane="1" toLane="1" via=":e_0_0" dir="t" state="M"/>
    <connection from="t_n" to="n_t" fromLane="1" toLane="1" via=":n_0_0" dir="t" state="M"/>
    <connection from="t_s" to="s_t" fromLane="1" toLane="1" via=":s_0_0" dir="t" state="M"/>
    <connection from="t_w" to="w_t" fromLane="1" toLane="1" via=":w_0_0" dir="t" state="M"/>
    <connection from="w_t" to="t_s" fromLane="0" toLane="0" via=":t_15_0" dir="r" state="m"/>
    <connection from="w_t" to="t_e" fromLane="0" toLane="0" via=":t_16_0" dir="s" state="m"/>
    <connection from="w_t" to="t_e" fromLane="1" toLane="1" via=":t_16_1" dir="s" state="m"/>
    <connection from="w_t" to="t_n" fromLane="1" toLane="1" via=":t_18_0" dir="l" state="m"/>
    <connection from="w_t" to="t_w" fromLane="1" toLane="1" via=":t_19_0" dir="t" state="m"/>

    <connection from=":e_0" to="e_t" fromLane="0" toLane="1" dir="t" state="M"/>
    <connection from=":n_0" to="n_t" fromLane="0" toLane="1" dir="t" state="M"/>
    <connection from=":s_0" to="s_t" fromLane="0" toLane="1" dir="t" state="M"/>
    <connection from=":t_0" to="t_w" fromLane="0" toLane="0" dir="r" state="M"/>
    <connection from=":t_1" to="t_s" fromLane="0" toLane="0" dir="s" state="M"/>
    <connection from=":t_1" to="t_s" fromLane="1" toLane="1" dir="s" state="M"/>
    <connection from=":t_3" to="t_e" fromLane="0" toLane="1" via=":t_20_0" dir="l" state="m"/>
    <connection from=":t_20" to="t_e" fromLane="0" toLane="1" dir="l" state="M"/>
    <connection from=":t_4" to="t_n" fromLane="0" toLane="1" via=":t_21_0" dir="t" state="m"/>
    <connection from=":t_21" to="t_n" fromLane="0" toLane="1" dir="t" state="M"/>
    <connection from=":t_5" to="t_n" fromLane="0" toLane="0" dir="r" state="M"/>
    <connection from=":t_6" to="t_w" fromLane="0" toLane="0" dir="s" state="M"/>
    <connection from=":t_6" to="t_w" fromLane="1" toLane="1" dir="s" state="M"/>
    <connection from=":t_8" to="t_s" fromLane="0" toLane="1" dir="l" state="M"/>
    <connection from=":t_9" to="t_e" fromLane="0" toLane="1" dir="t" state="M"/>
    <connection from=":t_10" to="t_e" fromLane="0" toLane="0" dir="r" state="M"/>
    <connection from=":t_11" to="t_n" fromLane="0" toLane="0" dir="s" state="M"/>
    <connection from=":t_11" to="t_n" fromLane="1" toLane="1" dir="s" state="M"/>
    <connection from=":t_13" to="t_w" fromLane="0" toLane="1" via=":t_22_0" dir="l" state="m"/>
    <connection from=":t_22" to="t_w" fromLane="0" toLane="1" dir="l" state="M"/>
    <connection from=":t_14" to="t_s" fromLane="0" toLane="1" via=":t_23_0" dir="t" state="m"/>
    <connection from=":t_23" to="t_s" fromLane="0" toLane="1" dir="t" state="M"/>
    <connection from=":t_15" to="t_s" fromLane="0" toLane="0" dir="r" state="M"/>
    <connection from=":t_16" to="t_e" fromLane="0" toLane="0" dir="s" state="M"/>
    <connection from=":t_16" to="t_e" fromLane="1" toLane="1" dir="s" state="M"/>
    <connection from=":t_18" to="t_n" fromLane="0" toLane="1" dir="l" state="M"/>
    <connection from=":t_19" to="t_w" fromLane="0" toLane="1" dir="t" state="M"/>
    <connection from=":w_0" to="w_t" fromLane="0" toLane="1" dir="t" state="M"/>

</net>
